Version 4
SHEET 1 880 680
WIRE 224 96 128 96
SYMBOL voltage 128 112 R0
