% Has SOLVER + mesh but no MARKER_* - warning not error
SOLVER= EULER
MESH_FILENAME= mesh.su2
MACH_NUMBER= 0.5
ITER= 10
