%
% SU2 minimal Inviscid Bump config (trimmed for testing)
%
SOLVER= EULER
MATH_PROBLEM= DIRECT
RESTART_SOL= NO

MACH_NUMBER= 0.5
AOA= 0.0

MESH_FILENAME= bump_channel.su2
MESH_FORMAT= SU2

MARKER_EULER= ( upper_wall, lower_wall )
MARKER_INLET= ( inlet, 288.6, 102010.0, 1.0, 0.0, 0.0 )
MARKER_OUTLET= ( outlet, 101300.0 )
MARKER_MONITORING= ( lower_wall )

ITER= 100
CFL_NUMBER= 4.0
CONV_FIELD= RMS_DENSITY
CONV_RESIDUAL_MINVAL= -8
