% Missing SOLVER= line, only mesh
MESH_FILENAME= mesh.su2
MACH_NUMBER= 0.5
